
     RDKit          2D

 21 23  0  0  0  0  0  0  0  0999 V2000
   -0.2820    1.5364    0.0000 C   0  0  0  0  0  0  0  0  0  0  0  0
   -1.7811    1.4844    0.0000 C   0  0  0  0  0  0  0  0  0  0  0  0
   -2.7043    2.6666    0.0000 N   0  0  0  0  0  0  0  0  0  0  0  0
   -4.1140    2.1539    0.0000 O   0  0  0  0  0  0  0  0  0  0  0  0
   -4.0620    0.6548    0.0000 C   0  0  0  0  0  0  0  0  0  0  0  0
   -5.2443   -0.2684    0.0000 C   0  0  0  0  0  0  0  0  0  0  0  0
   -2.6202    0.2410    0.0000 C   0  0  0  0  0  0  0  0  0  0  0  0
   -2.1075   -1.1686    0.0000 C   0  0  0  0  0  0  0  0  0  0  0  0
   -0.6304   -1.4295    0.0000 N   0  0  0  0  0  0  0  0  0  0  0  0
    0.0268   -2.7778    0.0000 C   0  0  0  0  0  0  0  0  0  0  0  0
   -0.6777   -4.1021    0.0000 O   0  0  0  0  0  0  0  0  0  0  0  0
    1.5123   -2.5694    0.0000 C   0  0  0  0  0  0  0  0  0  0  0  0
    2.5540   -3.6487    0.0000 O   0  0  0  0  0  0  0  0  0  0  0  0
    1.7731   -1.0923    0.0000 C   0  0  0  0  0  0  0  0  0  0  0  0
    3.0454   -0.2977    0.0000 C   0  0  0  0  0  0  0  0  0  0  0  0
    2.9934    1.2014    0.0000 C   0  0  0  0  0  0  0  0  0  0  0  0
    4.2657    1.9960    0.0000 C   0  0  0  0  0  0  0  0  0  0  0  0
    5.5379    2.7905    0.0000 N   0  0  0  0  0  0  0  0  0  0  0  0
    1.6692    1.9059    0.0000 C   0  0  0  0  0  0  0  0  0  0  0  0
    0.3969    1.1113    0.0000 C   0  0  0  0  0  0  0  0  0  0  0  0
    0.4489   -0.3878    0.0000 C   0  0  0  0  0  0  0  0  0  0  0  0
  1  2  1  0
  2  3  2  0
  3  4  1  0
  4  5  1  0
  5  6  1  0
  5  7  2  0
  7  8  1  0
  8  9  1  0
  9 10  1  0
 10 11  2  0
 10 12  1  0
 12 13  2  0
 12 14  1  0
 14 15  2  0
 15 16  1  0
 16 17  1  0
 17 18  3  0
 16 19  2  0
 19 20  1  0
 20 21  2  0
  7  2  1  0
 21  9  1  0
 21 14  1  0
M  END
