
     RDKit          2D

 21 22  0  0  0  0  0  0  0  0999 V2000
    6.9788   -0.4348    0.0000 C   0  0  0  0  0  0  0  0  0  0  0  0
    5.9082    0.6158    0.0000 C   0  0  0  0  0  0  0  0  0  0  0  0
    4.4630    0.2139    0.0000 N   0  0  0  0  0  0  0  0  0  0  0  0
    4.0885   -1.2386    0.0000 C   0  0  0  0  0  0  0  0  0  0  0  0
    5.1591   -2.2892    0.0000 C   0  0  0  0  0  0  0  0  0  0  0  0
    3.3924    1.2645    0.0000 C   0  0  0  0  0  0  0  0  0  0  0  0
    1.9472    0.8626    0.0000 C   0  0  0  0  0  0  0  0  0  0  0  0
    0.8766    1.9132    0.0000 N   0  0  0  0  0  0  0  0  0  0  0  0
   -0.5686    1.5112    0.0000 S   0  0  0  0  0  0  0  0  0  0  0  0
   -0.9705    2.9564    0.0000 O   0  0  0  0  0  0  0  0  0  0  0  0
   -0.1667    0.0661    0.0000 O   0  0  0  0  0  0  0  0  0  0  0  0
   -2.0137    1.1093    0.0000 C   0  0  0  0  0  0  0  0  0  0  0  0
   -3.0844    2.1599    0.0000 C   0  0  0  0  0  0  0  0  0  0  0  0
   -4.5295    1.7580    0.0000 C   0  0  0  0  0  0  0  0  0  0  0  0
   -4.9040    0.3055    0.0000 C   0  0  0  0  0  0  0  0  0  0  0  0
   -3.8334   -0.7451    0.0000 C   0  0  0  0  0  0  0  0  0  0  0  0
   -4.2079   -2.1976    0.0000 C   0  0  0  0  0  0  0  0  0  0  0  0
   -3.1373   -3.2481    0.0000 C   0  0  0  0  0  0  0  0  0  0  0  0
   -1.6921   -2.8462    0.0000 C   0  0  0  0  0  0  0  0  0  0  0  0
   -1.3176   -1.3937    0.0000 C   0  0  0  0  0  0  0  0  0  0  0  0
   -2.3882   -0.3432    0.0000 C   0  0  0  0  0  0  0  0  0  0  0  0
  1  2  1  0
  2  3  1  0
  3  4  1  0
  4  5  1  0
  3  6  1  0
  6  7  1  0
  7  8  1  0
  8  9  1  0
  9 10  2  0
  9 11  2  0
  9 12  1  0
 12 13  2  0
 13 14  1  0
 14 15  2  0
 15 16  1  0
 16 17  2  0
 17 18  1  0
 18 19  2  0
 19 20  1  0
 20 21  2  0
 21 12  1  0
 21 16  1  0
M  END
