
     RDKit          2D

 39 40  0  0  0  0  0  0  0  0999 V2000
    5.2674   -4.7019    0.0000 C   0  0  0  0  0  0  0  0  0  0  0  0
    3.9564   -3.9730    0.0000 C   0  0  0  0  0  0  0  0  0  0  0  0
    2.6697   -4.7440    0.0000 O   0  0  0  0  0  0  0  0  0  0  0  0
    3.9320   -2.4732    0.0000 N   0  0  0  0  0  0  0  0  0  0  0  0
    2.6210   -1.7444    0.0000 C   0  0  0  0  0  0  0  0  0  0  0  0
    1.3343   -2.5154    0.0000 C   0  0  0  0  0  0  0  0  0  0  0  0
    1.3586   -4.0152    0.0000 O   0  0  0  0  0  0  0  0  0  0  0  0
    0.0719   -4.7862    0.0000 P   0  0  0  0  0  0  0  0  0  0  0  0
    0.8429   -6.0729    0.0000 O   0  0  0  0  0  0  0  0  0  0  0  0
   -0.6990   -3.4995    0.0000 O   0  0  0  0  0  0  0  0  0  0  0  0
   -1.2148   -5.5571    0.0000 O   0  0  0  0  0  0  0  0  0  0  0  0
    2.5967   -0.2446    0.0000 C   0  0  0  0  0  0  0  0  0  0  0  0
    1.2856    0.4842    0.0000 O   0  0  0  0  0  0  0  0  0  0  0  0
    3.8834    0.5264    0.0000 N   0  0  0  0  0  0  0  0  0  0  0  0
    5.2634   -0.0614    0.0000 C   0  0  0  0  0  0  0  0  0  0  0  0
    6.2489    1.0694    0.0000 C   0  0  0  0  0  0  0  0  0  0  0  0
    5.4779    2.3561    0.0000 C   0  0  0  0  0  0  0  0  0  0  0  0
    4.0159    2.0205    0.0000 C   0  0  0  0  0  0  0  0  0  0  0  0
    2.8851    3.0060    0.0000 C   0  0  0  0  0  0  0  0  0  0  0  0
    3.1731    4.4781    0.0000 O   0  0  0  0  0  0  0  0  0  0  0  0
    1.4662    2.5194    0.0000 N   0  0  0  0  0  0  0  0  0  0  0  0
    0.3353    3.5048    0.0000 C   0  0  0  0  0  0  0  0  0  0  0  0
   -1.0835    3.0182    0.0000 C   0  0  0  0  0  0  0  0  0  0  0  0
   -2.2144    4.0037    0.0000 O   0  0  0  0  0  0  0  0  0  0  0  0
   -1.3715    1.5461    0.0000 N   0  0  0  0  0  0  0  0  0  0  0  0
   -2.7904    1.0595    0.0000 C   0  0  0  0  0  0  0  0  0  0  0  0
   -3.0784   -0.4126    0.0000 C   0  0  0  0  0  0  0  0  0  0  0  0
   -4.4973   -0.8992    0.0000 C   0  0  0  0  0  0  0  0  0  0  0  0
   -4.7853   -2.3712    0.0000 C   0  0  0  0  0  0  0  0  0  0  0  0
   -6.2042   -2.8579    0.0000 C   0  0  0  0  0  0  0  0  0  0  0  0
   -7.3351   -1.8724    0.0000 C   0  0  0  0  0  0  0  0  0  0  0  0
   -7.0471   -0.4003    0.0000 C   0  0  0  0  0  0  0  0  0  0  0  0
   -5.6282    0.0863    0.0000 C   0  0  0  0  0  0  0  0  0  0  0  0
   -3.9213    2.0450    0.0000 C   0  0  0  0  0  0  0  0  0  0  0  0
   -3.6333    3.5171    0.0000 N   0  0  0  0  0  0  0  0  0  0  0  0
   -5.3402    1.5584    0.0000 O   0  0  0  0  0  0  0  0  0  0  0  0
    0.6234    4.9769    0.0000 C   0  0  0  0  0  0  0  0  0  0  0  0
    2.0422    5.4635    0.0000 C   0  0  0  0  0  0  0  0  0  0  0  0
   -0.5075    5.9624    0.0000 O   0  0  0  0  0  0  0  0  0  0  0  0
  1  2  1  0
  2  3  2  0
  2  4  1  0
  4  5  1  0
  5  6  1  1
  6  7  1  0
  7  8  1  0
  8  9  2  0
  8 10  1  0
  8 11  1  0
  5 12  1  0
 12 13  2  0
 12 14  1  0
 14 15  1  0
 15 16  1  0
 16 17  1  0
 17 18  1  0
 18 19  1  6
 19 20  2  0
 19 21  1  0
 22 21  1  6
 22 23  1  0
 23 24  2  0
 23 25  1  0
 25 26  1  0
 26 27  1  1
 27 28  1  0
 28 29  2  0
 29 30  1  0
 30 31  2  0
 31 32  1  0
 32 33  2  0
 26 34  1  0
 34 35  1  0
 34 36  2  0
 22 37  1  0
 37 38  1  6
 37 39  1  0
 18 14  1  0
 33 28  1  0
M  END
