
     RDKit          2D

 27 29  0  0  0  0  0  0  0  0999 V2000
    8.2783    0.3441    0.0000 C   0  0  0  0  0  0  0  0  0  0  0  0
    6.8119    0.6596    0.0000 C   0  0  0  0  0  0  0  0  0  0  0  0
    6.2052    2.0315    0.0000 N   0  0  0  0  0  0  0  0  0  0  0  0
    4.7130    1.8784    0.0000 O   0  0  0  0  0  0  0  0  0  0  0  0
    4.3975    0.4119    0.0000 C   0  0  0  0  0  0  0  0  0  0  0  0
    3.0257   -0.1948    0.0000 N   0  0  0  0  0  0  0  0  0  0  0  0
    1.8144    0.6899    0.0000 C   0  0  0  0  0  0  0  0  0  0  0  0
    1.9749    2.1813    0.0000 O   0  0  0  0  0  0  0  0  0  0  0  0
    0.4425    0.0832    0.0000 C   0  0  0  0  0  0  0  0  0  0  0  0
    0.1270   -1.3832    0.0000 C   0  0  0  0  0  0  0  0  0  0  0  0
   -1.3651   -1.5363    0.0000 C   0  0  0  0  0  0  0  0  0  0  0  0
   -1.9718   -0.1645    0.0000 C   0  0  0  0  0  0  0  0  0  0  0  0
   -3.4383    0.1510    0.0000 C   0  0  0  0  0  0  0  0  0  0  0  0
   -4.5555   -0.8500    0.0000 C   0  0  0  0  0  0  0  0  0  0  0  0
   -5.8527   -0.0967    0.0000 C   0  0  0  0  0  0  0  0  0  0  0  0
   -7.2245   -0.7034    0.0000 C   0  0  0  0  0  0  0  0  0  0  0  0
   -8.5963   -1.3102    0.0000 F   0  0  0  0  0  0  0  0  0  0  0  0
   -7.8312    0.6684    0.0000 F   0  0  0  0  0  0  0  0  0  0  0  0
   -6.6178   -2.0753    0.0000 F   0  0  0  0  0  0  0  0  0  0  0  0
   -5.5372    1.3697    0.0000 N   0  0  0  0  0  0  0  0  0  0  0  0
   -4.0450    1.5228    0.0000 N   0  0  0  0  0  0  0  0  0  0  0  0
   -3.2918    2.8200    0.0000 C   0  0  0  0  0  0  0  0  0  0  0  0
   -0.8546    0.8364    0.0000 S   0  0  0  0  0  0  0  0  0  0  0  0
    5.6947   -0.3413    0.0000 C   0  0  0  0  0  0  0  0  0  0  0  0
    5.8478   -1.8335    0.0000 N   0  0  0  0  0  4  0  0  0  0  0  0
    7.2166   -2.4469    0.0000 O   0  0  0  0  0  0  0  0  0  0  0  0
    4.6321   -2.7121    0.0000 O   0  0  0  0  0  1  0  0  0  0  0  0
  1  2  1  0
  2  3  2  0
  3  4  1  0
  4  5  1  0
  5  6  1  0
  6  7  1  0
  7  8  2  0
  7  9  1  0
  9 10  2  0
 10 11  1  0
 11 12  2  0
 12 13  1  0
 13 14  2  0
 14 15  1  0
 15 16  1  0
 16 17  1  0
 16 18  1  0
 16 19  1  0
 15 20  2  0
 20 21  1  0
 21 22  1  0
 12 23  1  0
  5 24  2  0
 24 25  1  0
 25 26  2  0
 25 27  1  0
 24  2  1  0
 23  9  1  0
 21 13  1  0
M  CHG  2  25   1  27  -1
M  END
