
     RDKit          2D

 20 22  0  0  0  0  0  0  0  0999 V2000
    0.9501   -3.6765    0.0000 O   0  0  0  0  0  0  0  0  0  0  0  0
    1.4384   -2.2582    0.0000 C   0  0  0  0  0  0  0  0  0  0  0  0
    2.8728   -1.8195    0.0000 C   0  0  0  0  0  0  0  0  0  0  0  0
    4.0708   -2.7222    0.0000 Cl  0  0  0  0  0  0  0  0  0  0  0  0
    2.8989   -0.3198    0.0000 C   0  0  0  0  0  0  0  0  0  0  0  0
    4.0309    0.6644    0.0000 C   0  0  0  0  0  0  0  0  0  0  0  0
    3.7446    2.1368    0.0000 C   0  0  0  0  0  0  0  0  0  0  0  0
    4.8767    3.1210    0.0000 F   0  0  0  0  0  0  0  0  0  0  0  0
    2.3263    2.6251    0.0000 C   0  0  0  0  0  0  0  0  0  0  0  0
    1.1943    1.6409    0.0000 C   0  0  0  0  0  0  0  0  0  0  0  0
    1.4806    0.1685    0.0000 C   0  0  0  0  0  0  0  0  0  0  0  0
    0.5780   -1.0295    0.0000 N   0  0  0  0  0  0  0  0  0  0  0  0
   -0.9218   -1.0034    0.0000 C   0  0  0  0  0  0  0  0  0  0  0  0
   -1.6491    0.3085    0.0000 C   0  0  0  0  0  0  0  0  0  0  0  0
   -3.1489    0.3346    0.0000 C   0  0  0  0  0  0  0  0  0  0  0  0
   -3.8761    1.6465    0.0000 C   0  0  0  0  0  0  0  0  0  0  0  0
   -5.3759    1.6726    0.0000 C   0  0  0  0  0  0  0  0  0  0  0  0
   -6.1484    0.3868    0.0000 C   0  0  0  0  0  0  0  0  0  0  0  0
   -5.4211   -0.9251    0.0000 C   0  0  0  0  0  0  0  0  0  0  0  0
   -3.9213   -0.9512    0.0000 C   0  0  0  0  0  0  0  0  0  0  0  0
  1  2  2  0
  2  3  1  0
  3  4  1  0
  3  5  1  0
  5  6  2  0
  6  7  1  0
  7  8  1  0
  7  9  2  0
  9 10  1  0
 10 11  2  0
 11 12  1  0
 12 13  1  0
 13 14  1  0
 14 15  1  0
 15 16  2  0
 16 17  1  0
 17 18  2  0
 18 19  1  0
 19 20  2  0
 12  2  1  0
 20 15  1  0
 11  5  1  0
M  END
