
     RDKit          2D

 28 31  0  0  0  0  0  0  0  0999 V2000
   -4.8738   -4.5610    0.0000 C   0  0  0  0  0  0  0  0  0  0  0  0
   -4.5940   -3.0873    0.0000 C   0  0  0  0  0  0  0  0  0  0  0  0
   -3.2373   -2.4475    0.0000 N   0  0  0  0  0  0  0  0  0  0  0  0
   -3.4266   -0.9595    0.0000 C   0  0  0  0  0  0  0  0  0  0  0  0
   -2.4475    0.1768    0.0000 C   0  0  0  0  0  0  0  0  0  0  0  0
   -0.9738   -0.1029    0.0000 C   0  0  0  0  0  0  0  0  0  0  0  0
    0.0054    1.0334    0.0000 C   0  0  0  0  0  0  0  0  0  0  0  0
    1.4790    0.7536    0.0000 C   0  0  0  0  0  0  0  0  0  0  0  0
    1.9736   -0.6625    0.0000 C   0  0  0  0  0  0  0  0  0  0  0  0
    3.4472   -0.9423    0.0000 C   0  0  0  0  0  0  0  0  0  0  0  0
    4.4264    0.1940    0.0000 C   0  0  0  0  0  0  0  0  0  0  0  0
    5.9000   -0.0858    0.0000 N   0  0  0  0  0  0  0  0  0  0  0  0
    6.3946   -1.5019    0.0000 S   0  0  0  0  0  0  0  0  0  0  0  0
    6.8891   -2.9180    0.0000 C   0  0  0  0  0  0  0  0  0  0  0  0
    4.9784   -1.9964    0.0000 O   0  0  0  0  0  0  0  0  0  0  0  0
    7.8107   -1.0074    0.0000 O   0  0  0  0  0  0  0  0  0  0  0  0
    3.9318    1.6102    0.0000 C   0  0  0  0  0  0  0  0  0  0  0  0
    2.4582    1.8899    0.0000 C   0  0  0  0  0  0  0  0  0  0  0  0
    1.9636    3.3061    0.0000 Cl  0  0  0  0  0  0  0  0  0  0  0  0
   -0.4892    2.4495    0.0000 C   0  0  0  0  0  0  0  0  0  0  0  0
    0.4900    3.5859    0.0000 Cl  0  0  0  0  0  0  0  0  0  0  0  0
   -1.9629    2.7293    0.0000 C   0  0  0  0  0  0  0  0  0  0  0  0
   -2.9420    1.5930    0.0000 C   0  0  0  0  0  0  0  0  0  0  0  0
   -4.4157    1.8728    0.0000 N   0  0  0  0  0  0  0  0  0  0  0  0
   -5.3948    0.7364    0.0000 C   0  0  0  0  0  0  0  0  0  0  0  0
   -6.8685    1.0162    0.0000 O   0  0  0  0  0  0  0  0  0  0  0  0
   -4.9003   -0.6797    0.0000 N   0  0  0  0  0  0  0  0  0  0  0  0
   -5.6218   -1.9948    0.0000 N   0  0  0  0  0  0  0  0  0  0  0  0
  1  2  1  0
  2  3  1  0
  3  4  2  0
  4  5  1  0
  5  6  2  0
  6  7  1  0
  7  8  1  0
  8  9  2  0
  9 10  1  0
 10 11  2  0
 11 12  1  0
 12 13  1  0
 13 14  1  0
 13 15  2  0
 13 16  2  0
 11 17  1  0
 17 18  2  0
 18 19  1  0
  7 20  2  0
 20 21  1  0
 20 22  1  0
 22 23  2  0
 23 24  1  0
 24 25  1  0
 25 26  2  0
 25 27  1  0
 27 28  1  0
 28  2  2  0
 27  4  1  0
 23  5  1  0
 18  8  1  0
M  END
