
     RDKit          2D

 17 19  0  0  0  0  0  0  0  0999 V2000
    0.0000    3.0188    0.0000 Cl  0  0  0  0  0  0  0  0  0  0  0  0
   -4.8368   -0.6223    0.0000 N   0  0  0  0  0  0  0  0  0  0  0  0
   -3.3679   -0.3180    0.0000 C   0  0  0  0  0  0  0  0  0  0  0  0
   -2.8970    1.1061    0.0000 C   0  0  0  0  0  0  0  0  0  0  0  0
   -1.4282    1.4103    0.0000 C   0  0  0  0  0  0  0  0  0  0  0  0
   -0.4303    0.2904    0.0000 C   0  0  0  0  0  0  0  0  0  0  0  0
   -0.9012   -1.1337    0.0000 C   0  0  0  0  0  0  0  0  0  0  0  0
   -2.3701   -1.4380    0.0000 C   0  0  0  0  0  0  0  0  0  0  0  0
    0.5676   -0.8295    0.0000 C   0  0  0  0  0  0  0  0  0  0  0  0
    2.0364   -0.5253    0.0000 C   0  0  0  0  0  0  0  0  0  0  0  0
    2.5074    0.8988    0.0000 C   0  0  0  0  0  0  0  0  0  0  0  0
    3.5052   -0.2211    0.0000 C   0  0  0  0  0  0  0  0  0  0  0  0
    3.0343   -1.6452    0.0000 C   0  0  0  0  0  0  0  0  0  0  0  0
    1.5655   -1.9495    0.0000 C   0  0  0  0  0  0  0  0  0  0  0  0
    1.4648    1.2436    0.0000 C   0  0  0  0  0  0  0  0  0  0  0  0
    0.0407    1.7146    0.0000 C   0  0  0  0  0  0  0  0  0  0  0  0
    1.5095    2.0188    0.0000 C   0  0  0  0  0  0  0  0  0  0  0  0
  2  3  1  0
  3  4  1  0
  4  5  1  0
  5  6  1  0
  6  7  1  0
  7  8  1  0
  6  9  1  0
  9 10  1  0
 10 11  1  0
 11 12  1  0
 12 13  1  0
 13 14  1  0
 13 15  1  0
 15 16  1  0
 16 17  1  0
  8  3  1  0
 14  9  1  0
 16  6  1  0
 17 11  1  0
M  END
