
     RDKit          2D

 17 18  0  0  0  0  0  0  0  0999 V2000
   -1.5285   -3.5873    0.0000 C   0  0  0  0  0  0  0  0  0  0  0  0
   -0.7063   -2.3327    0.0000 C   0  0  0  0  0  0  0  0  0  0  0  0
   -1.3818   -0.9934    0.0000 C   0  0  0  0  0  0  0  0  0  0  0  0
   -2.8794   -0.9087    0.0000 N   0  0  0  0  0  0  0  0  0  0  0  0
   -3.5549    0.4306    0.0000 C   0  0  0  0  0  0  0  0  0  0  0  0
   -5.0525    0.5153    0.0000 N   0  0  0  0  0  0  0  0  0  0  0  0
   -2.7327    1.6852    0.0000 N   0  0  0  0  0  0  0  0  0  0  0  0
   -1.2351    1.6006    0.0000 C   0  0  0  0  0  0  0  0  0  0  0  0
   -0.4130    2.8552    0.0000 N   0  0  0  0  0  0  0  0  0  0  0  0
   -0.5597    0.2613    0.0000 C   0  0  0  0  0  0  0  0  0  0  0  0
    0.9379    0.1766    0.0000 C   0  0  0  0  0  0  0  0  0  0  0  0
    1.6134   -1.1627    0.0000 C   0  0  0  0  0  0  0  0  0  0  0  0
    3.1110   -1.2474    0.0000 C   0  0  0  0  0  0  0  0  0  0  0  0
    3.9332    0.0072    0.0000 C   0  0  0  0  0  0  0  0  0  0  0  0
    5.4308   -0.0775    0.0000 Cl  0  0  0  0  0  0  0  0  0  0  0  0
    3.2577    1.3465    0.0000 C   0  0  0  0  0  0  0  0  0  0  0  0
    1.7601    1.4312    0.0000 C   0  0  0  0  0  0  0  0  0  0  0  0
  1  2  1  0
  2  3  1  0
  3  4  2  0
  4  5  1  0
  5  6  1  0
  5  7  2  0
  7  8  1  0
  8  9  1  0
  8 10  2  0
 10 11  1  0
 11 12  2  0
 12 13  1  0
 13 14  2  0
 14 15  1  0
 14 16  1  0
 16 17  2  0
 10  3  1  0
 17 11  1  0
M  END
