
     RDKit          2D

 20 21  0  0  0  0  0  0  0  0999 V2000
    0.8334    0.9993    0.0000 O   0  0  0  0  0  0  0  0  0  0  0  0
    0.6630   -0.4910    0.0000 C   0  0  0  0  0  0  0  0  0  0  0  0
    1.8685   -1.3836    0.0000 C   0  0  0  0  0  0  0  0  0  0  0  0
    3.2443   -0.7860    0.0000 C   0  0  0  0  0  0  0  0  0  0  0  0
    4.4497   -1.6787    0.0000 C   0  0  0  0  0  0  0  0  0  0  0  0
    5.8255   -1.0811    0.0000 C   0  0  0  0  0  0  0  0  0  0  0  0
    5.9959    0.4092    0.0000 C   0  0  0  0  0  0  0  0  0  0  0  0
    7.3717    1.0068    0.0000 I   0  0  0  0  0  0  0  0  0  0  0  0
    4.7904    1.3019    0.0000 C   0  0  0  0  0  0  0  0  0  0  0  0
    3.4146    0.7043    0.0000 C   0  0  0  0  0  0  0  0  0  0  0  0
   -0.7128   -1.0886    0.0000 N   0  0  0  0  0  0  0  0  0  0  0  0
   -1.9183   -0.1959    0.0000 C   0  0  0  0  0  0  0  0  0  0  0  0
   -1.7479    1.2944    0.0000 C   0  0  0  0  0  0  0  0  0  0  0  0
   -2.9534    2.1871    0.0000 C   0  0  0  0  0  0  0  0  0  0  0  0
   -4.3292    1.5894    0.0000 C   0  0  0  0  0  0  0  0  0  0  0  0
   -4.4995    0.0991    0.0000 C   0  0  0  0  0  0  0  0  0  0  0  0
   -5.8753   -0.4985    0.0000 N   0  0  0  0  0  4  0  0  0  0  0  0
   -6.0457   -1.9888    0.0000 O   0  0  0  0  0  0  0  0  0  0  0  0
   -7.0808    0.3942    0.0000 O   0  0  0  0  0  1  0  0  0  0  0  0
   -3.2941   -0.7935    0.0000 C   0  0  0  0  0  0  0  0  0  0  0  0
  1  2  2  0
  2  3  1  0
  3  4  1  0
  4  5  2  0
  5  6  1  0
  6  7  2  0
  7  8  1  0
  7  9  1  0
  9 10  2  0
  2 11  1  0
 11 12  1  0
 12 13  2  0
 13 14  1  0
 14 15  2  0
 15 16  1  0
 16 17  1  0
 17 18  2  0
 17 19  1  0
 16 20  2  0
 10  4  1  0
 20 12  1  0
M  CHG  2  17   1  19  -1
M  END
