
     RDKit          2D

 18 20  0  0  0  0  0  0  0  0999 V2000
    4.6717   -1.1796    0.0000 N   0  0  0  0  0  0  0  0  0  0  0  0
    3.4129   -0.3639    0.0000 C   0  0  0  0  0  0  0  0  0  0  0  0
    3.4899    1.1341    0.0000 N   0  0  0  0  0  0  0  0  0  0  0  0
    2.2311    1.9499    0.0000 C   0  0  0  0  0  0  0  0  0  0  0  0
    2.3081    3.4479    0.0000 Cl  0  0  0  0  0  0  0  0  0  0  0  0
    0.8953    1.2676    0.0000 N   0  0  0  0  0  0  0  0  0  0  0  0
    0.8182   -0.2305    0.0000 C   0  0  0  0  0  0  0  0  0  0  0  0
    2.0770   -1.0462    0.0000 C   0  0  0  0  0  0  0  0  0  0  0  0
    1.6902   -2.4955    0.0000 N   0  0  0  0  0  0  0  0  0  0  0  0
    0.1923   -2.5754    0.0000 C   0  0  0  0  0  0  0  0  0  0  0  0
   -0.3466   -1.1756    0.0000 N   0  0  0  0  0  0  0  0  0  0  0  0
   -1.7958   -0.7888    0.0000 C   0  0  0  0  0  0  0  0  0  0  0  0
   -2.9606   -1.7339    0.0000 C   0  0  0  0  0  0  0  0  0  0  0  0
   -4.2194   -0.9182    0.0000 C   0  0  0  0  0  0  0  0  0  0  0  0
   -3.8326    0.5311    0.0000 C   0  0  0  0  0  0  0  0  0  0  0  0
   -4.7778    1.6959    0.0000 O   0  0  0  0  0  0  0  0  0  0  0  0
   -2.3348    0.6111    0.0000 C   0  0  0  0  0  0  0  0  0  0  0  0
   -1.5190    1.8699    0.0000 O   0  0  0  0  0  0  0  0  0  0  0  0
  1  2  1  0
  2  3  2  0
  3  4  1  0
  4  5  1  0
  4  6  2  0
  6  7  1  0
  7  8  2  0
  8  9  1  0
  9 10  2  0
 10 11  1  0
 12 11  1  6
 12 13  1  0
 13 14  2  0
 14 15  1  0
 15 16  1  1
 15 17  1  0
 17 18  1  1
  8  2  1  0
 17 12  1  0
 11  7  1  0
M  END
